21
c1mim-dca-p1-mp2-cp.com
C	0.00000000	0.00000000	0.00000000
N	0.00000000	0.00000000	1.34185100
C	1.30173600	0.00000000	1.78249000
C	2.10896600	0.03303000	0.67050000
N	1.27444900	0.03591000	-0.42249100
C	1.70616600	0.08060500	-1.82376900
C	-1.18127400	-0.24435100	2.17183600
H	0.95088600	-0.41197500	-2.42853700
H	1.83606000	1.11573500	-2.13098300
H	2.64014800	-0.46983400	-1.89195100
H	3.17902300	-0.00594000	0.56652100
H	1.54931900	-0.04145900	2.82832200
H	-1.00938600	0.20247900	3.14673900
H	-2.03955900	0.22772400	1.70215600
H	-1.32578200	-1.32068900	2.23420600
H	-0.87087700	-0.06529800	-0.62749900
N	-0.45298300	-2.84649500	0.63767200
C	0.50626300	-3.01742300	-0.06318800
N	1.46627400	-3.21255500	-0.94579100
C	2.66822800	-2.73877300	-0.66486300
N	3.76192300	-2.26499800	-0.53593200
