21
c1mim-dca-p2-mp2-cp.com
N	0.00000000	0.00000000	0.00000000
C	0.00000000	0.00000000	1.34621800
N	1.28065600	0.00000000	1.76129100
C	2.10745700	-0.00433200	0.66329600
C	1.29938500	-0.00440000	-0.44800000
C	-1.20120100	-0.03067800	-0.84945400
C	1.71903800	-0.03154800	3.16563800
H	3.17905500	0.00815700	0.75570600
H	1.54186700	0.00814600	-1.49588100
H	-0.87661600	0.01291400	1.98309300
H	2.67829000	0.47419100	3.22289900
H	1.81846300	-1.06603600	3.48495700
H	0.98562500	0.50008700	3.77038300
H	-1.48808900	-1.06461900	-1.02453400
H	-1.99491900	0.52090700	-0.34749600
H	-0.95286700	0.45521100	-1.78826900
N	-3.20270700	1.77981100	0.95549600
C	-2.87309000	1.38481200	2.03771500
N	-2.53067600	0.79153400	3.17246400
C	-1.56109300	1.35152400	3.88190700
N	-0.63963300	1.71579400	4.55577700
