34
c1mim-tos-p1-mp2-cp.com
C	0.00000000	0.00000000	0.00000000
C	0.00000000	0.00000000	1.37182200
N	1.31545300	0.00000000	1.77321800
C	2.10012600	-0.02496000	0.68613800
N	1.31575400	0.00038300	-0.40123300
C	1.78624700	-0.24781300	-1.76410300
C	1.78602400	-0.24270500	3.13749900
H	1.23776100	0.40331700	3.81821500
H	2.84580000	-0.00985600	3.18024200
H	1.61818500	-1.29654100	3.35096400
H	-0.81083000	-0.03918900	2.07657100
H	-0.81096200	-0.03769500	-0.70472900
H	1.21423900	0.37040000	-2.45088600
H	2.83754600	0.01962700	-1.81809200
H	1.65029100	-1.30926000	-1.96202000
H	3.16959500	-0.12275600	0.68688500
S	1.65628100	-3.23029500	0.76559400
O	3.00489500	-2.57056200	0.83246600
O	0.82828000	-2.95758800	1.98118100
O	0.94894000	-2.95331000	-0.52325700
C	1.97628400	-4.98887100	0.77774600
C	2.20057700	-5.66037100	-0.42682400
C	2.51188000	-7.02188200	-0.40496500
C	2.60771300	-7.72622900	0.80442700
C	2.37885700	-7.02872700	1.99984000
C	2.06688300	-5.66724400	1.99575500
C	2.90087600	-9.20435400	0.81633000
H	2.11638300	-5.12095400	-1.36174200
H	2.68223700	-7.54463000	-1.34076400
H	1.87999000	-5.13317800	2.91873600
H	2.44518600	-7.55719000	2.94554200
H	3.42167900	-9.49117500	1.73028500
H	1.98067100	-9.78983800	0.75987600
H	3.52565400	-9.48473400	-0.03213500
