24
c1mim-mes-p1-mp2-cp.com
N	0.00000000	0.00000000	0.00000000
C	0.00000000	0.00000000	1.34066400
N	1.27377900	0.00000000	1.76239500
C	2.10293300	-0.04136900	0.66700500
C	1.29819900	-0.03224900	-0.44531900
C	-1.20095500	-0.07389500	-0.83620200
C	1.67706700	-0.28243900	3.13917900
H	-0.87228800	-0.09927900	1.96127100
H	1.54009200	-0.08094100	-1.49163400
H	3.17233600	-0.10066100	0.76260300
H	2.63479000	0.19568100	3.32544300
H	1.73285100	-1.36333300	3.24781200
H	0.92828000	0.12841400	3.81050300
H	-0.98813500	-0.76281900	-1.64690100
H	-1.99181600	-0.50418900	-0.22881100
H	-1.45549900	0.91950800	-1.19928000
S	-0.44246300	-3.09237300	0.87592200
C	-0.84648900	-4.81709500	1.10817100
O	-0.17016100	-2.91750300	-0.58379000
O	0.75896600	-2.83010500	1.73533500
O	-1.64899400	-2.32381700	1.33835700
H	0.00554900	-5.41035300	0.78627300
H	-1.05310200	-4.98026100	2.16267700
H	-1.72222600	-5.04428100	0.50576800
