29
c1mpyr-mes-p1-mp2-cp.com
N	0.00000000	0.00000000	0.00000000
C	0.00000000	0.00000000	1.52928800
H	2.07560100	0.00000000	2.23454600
C	0.64771900	1.34058700	-0.34945600
C	1.73816100	1.55054300	0.70639200
H	-0.14311300	2.09055800	-0.26578600
C	1.29704600	0.71237600	1.94067900
C	-1.39519800	-0.09758900	-0.55155700
C	0.83086100	-1.13274500	-0.51626100
H	-1.85085700	-1.01794400	-0.17873900
H	-1.95832600	0.78288700	-0.22853700
H	-1.33374700	-0.12559000	-1.64242900
H	0.36655200	-2.07620700	-0.22119400
H	0.88097600	-1.07024900	-1.60542200
H	1.83523300	-1.06848600	-0.09589500
H	1.00277600	1.28740100	-1.38225900
H	2.72168800	1.23315700	0.34211200
H	1.78752200	2.61241800	0.95502400
H	-0.08412200	-1.03715600	1.86516000
H	-0.88427800	0.55906000	1.85187500
H	1.08574500	1.36122900	2.79299200
S	-1.90318200	3.10773700	1.68686400
O	-2.12009500	2.90543200	0.21034400
O	-0.49678200	3.50694000	2.00178900
O	-2.37529800	1.93237900	2.48674300
C	-2.95340800	4.50094000	2.15927100
H	-3.99059900	4.24214400	1.93590400
H	-2.64248500	5.37592000	1.58444600
H	-2.82357500	4.67812100	3.22910300
