26
c1mpyr-dca-p1-mp2-cp.com
C	0.00000000	0.00000000	0.00000000
C	0.00000000	0.00000000	1.55682100
C	1.47947900	0.00000000	1.96567100
C	1.47948500	-0.00080000	-0.40901900
N	2.21945800	-0.61479400	0.77852600
C	2.07133400	-2.10596000	0.77902900
C	3.67799000	-0.25088600	0.77837900
H	1.01460600	-2.37288600	0.77899700
H	2.55398100	-2.50777400	1.67230600
H	2.55417200	-2.50836000	-0.11387900
H	4.13988500	-0.67690500	-0.11559200
H	4.13992000	-0.67624800	1.67264500
H	3.76035900	0.84035800	0.77790900
H	1.71963200	-0.57879800	2.86107000
H	1.87739600	1.01286500	2.06245500
H	-0.52562400	-0.87384200	1.95547900
H	-0.50096800	0.89333400	1.93834400
H	-0.52618700	-0.87350400	-0.39864900
H	-0.50046000	0.89361800	-0.38151000
H	1.71934500	-0.58048100	-1.30392400
H	1.87770300	1.01186600	-0.50671600
N	2.99869600	2.84910600	0.77524100
C	2.00332900	3.48961700	0.77709300
N	0.93666300	4.23747600	0.77911600
C	-0.23384500	3.63327700	0.78105300
N	-1.29978600	3.13120400	0.78286900
