26
c1mpyr-bf4-p1-mp2-cp.com
C	0.00000000	0.00000000	0.00000000
C	0.00000000	0.00000000	1.53433800
C	1.49751200	0.00000000	1.95831700
C	2.30172500	-0.00123700	0.65170000
N	1.35753700	0.57558700	-0.40298400
C	1.33541800	2.07091200	-0.32195300
C	1.75004100	0.15063500	-1.79034200
F	0.99652600	-2.91398700	0.86094700
B	1.36474100	-3.37607600	-0.43607300
F	0.43526000	-2.81954300	-1.36956300
F	1.38210700	-4.75238000	-0.50066700
F	2.64697000	-2.82127000	-0.74124000
H	1.05038800	2.37808900	0.68479700
H	2.33070100	2.45385900	-0.55684200
H	0.61158500	2.45481700	-1.04381700
H	1.76191600	-0.93835600	-1.83516700
H	1.01947700	0.55364000	-2.49549800
H	2.74231600	0.55249500	-2.00777000
H	2.54247100	-1.01475100	0.32806100
H	3.20917200	0.60806000	0.66518200
H	1.73273200	0.87233000	2.57751200
H	1.74693100	-0.89583200	2.52997600
H	-0.52512200	0.87181800	1.93911000
H	-0.51168500	-0.89637200	1.88955600
H	-0.77918300	0.61056200	-0.46364200
H	-0.03656700	-1.01315900	-0.40256600
