29
c1mpyr-mes-p2-mp2-cp.com
N	0.00000000	0.00000000	0.00000000
C	0.00000000	0.00000000	1.50444600
C	1.42896400	0.00000000	-0.49153000
C	-0.76191700	1.19952500	-0.56134200
C	-1.14165900	0.78814000	-1.99072600
C	-1.12339300	-0.76938800	-2.00768400
C	-0.76024400	-1.17776300	-0.57268400
H	-0.13948700	2.09811200	-0.48147100
H	-1.64162200	1.31844800	0.07738000
H	-0.43156300	1.19788200	-2.71458600
H	-2.12508000	1.19118500	-2.24767500
H	-0.38779400	-1.14839800	-2.72345700
H	-2.09060600	-1.19669100	-2.28724100
H	-1.65368900	-1.30101500	0.04573700
H	-0.14632800	-2.07738200	-0.48676600
H	1.95696500	0.86384100	-0.07031800
H	1.89778200	-0.92970900	-0.16058200
H	1.43054300	0.05029200	-1.58071200
H	0.43352900	0.94315800	1.85830400
H	-1.03368200	-0.08476300	1.84721000
H	0.58108900	-0.85836800	1.84950500
S	1.77231100	3.41244400	1.07370000
O	0.82114000	2.96361600	2.14416000
O	1.07129300	3.75226900	-0.20768400
O	2.90125900	2.44658600	0.87369100
C	2.51575100	4.94899100	1.66793300
H	3.21735400	5.30558400	0.91077600
H	3.03544000	4.73855300	2.60513000
H	1.71742200	5.67728500	1.82586100
