28
c1mpyr-pf6-p1-mp2-cp.com
C	0.00000000	0.00000000	0.00000000
C	0.00000000	0.00000000	1.53463800
C	1.49835300	0.00000000	1.95710400
C	2.29967400	-0.00278400	0.64844300
N	1.35533800	0.58036800	-0.40199300
C	1.33152200	2.07579700	-0.31138100
C	1.74706200	0.16641300	-1.79287300
F	1.01774500	-2.89994500	0.78160200
P	1.39007600	-3.84743500	-0.54374500
F	2.67806500	-2.81998800	-0.83737200
F	0.09077500	-4.77400200	-0.24649900
F	2.34106300	-4.77661700	0.38754500
F	1.76382600	-4.69804600	-1.87374700
F	0.44703600	-2.81740700	-1.46598100
H	1.04696800	2.37672800	0.69722400
H	2.32623200	2.46088000	-0.54480700
H	0.60675600	2.46288700	-1.03047100
H	1.76133700	-0.92167600	-1.84683400
H	1.01533900	0.57295800	-2.49465800
H	2.73824200	0.57147000	-2.00896300
H	2.53205400	-1.01675500	0.32321300
H	3.21127500	0.59991100	0.66099100
H	1.73444400	0.87358600	2.57375100
H	1.75106000	-0.89229400	2.53323100
H	-0.52390900	0.87247700	1.93887900
H	-0.51575300	-0.89336800	1.89218400
H	-0.78242200	0.60564100	-0.46413900
H	-0.03114800	-1.01312200	-0.40065800
