22
c1mpyr-br-p2-mp2-cp.com
C	0.00000000	0.00000000	0.00000000
N	0.00000000	0.00000000	1.52743800
C	1.47491100	0.00000000	1.86090600
C	2.12882000	0.92518200	0.81939400
C	1.13777000	0.95132500	-0.38333100
C	-0.67282400	1.24736600	2.05483600
C	-0.72247200	-1.20022600	2.07427500
Br	-3.48301600	0.13185600	0.29060400
H	-0.15052100	2.12548000	1.67378700
H	-1.71303000	1.22686700	1.70228400
H	-0.61943600	1.22425100	3.14566800
H	-0.23337400	-2.10128800	1.69787900
H	-0.67062700	-1.16938600	3.16526600
H	-1.76057200	-1.13993100	1.72066800
H	0.21865700	-1.03046800	-0.29602100
H	-1.01362100	0.25274300	-0.33411600
H	0.76047300	1.96304200	-0.55932300
H	1.60816800	0.62099700	-1.31336000
H	2.28540800	1.92878500	1.22564100
H	3.11242400	0.53718400	0.53986200
H	1.60752800	0.30750700	2.90086600
H	1.81850600	-1.03281400	1.75386200
