36
c1mpyr-ntf2-p1-mp2-cp.com
C	0.00000000	0.00000000	0.00000000
N	0.00000000	0.00000000	1.52762700
C	1.49003000	0.00000000	1.84861300
C	2.12012500	-0.94910700	0.82343700
C	1.16226600	-0.91998500	-0.40329400
H	0.81311500	-1.92581000	-0.65824500
H	1.65944900	-0.50710600	-1.28349500
H	2.22359700	-1.96317300	1.22347600
H	3.11574000	-0.58597200	0.56269100
H	1.62282000	-0.28184800	2.89610200
H	-0.98783900	-0.31157800	-0.34702000
H	-0.15729800	-2.12056100	1.65231500
H	-0.57853400	-1.24029000	3.14767800
H	-1.70454400	-1.23658500	1.76092000
H	-1.74303300	1.18349300	1.79219500
H	-0.60426800	1.18984200	3.17478100
C	-0.69208800	1.21197600	2.08600900
C	-0.65418200	-1.23935500	2.05830000
H	0.18716900	1.03433600	-0.29356100
H	1.83653900	1.02153700	1.69123100
H	-0.22625600	2.10604200	1.67240100
N	0.96545000	3.18817100	-0.10900000
S	2.55229200	3.27928500	-0.45384100
S	-0.15089100	4.32634200	-0.46488200
C	-0.74898000	3.82088500	-2.18656400
C	3.29008600	4.13939000	1.06006500
O	-1.30691000	4.02742000	0.39361400
O	0.33209200	5.69707400	-0.61194100
O	3.06243300	1.90096100	-0.32387900
O	2.94351800	4.09828500	-1.59828100
F	2.98431100	3.44343200	2.18039100
F	4.62484800	4.17955100	0.94575800
F	2.82532300	5.38216500	1.19727600
F	0.22425000	3.92562400	-3.09518900
F	-1.17914400	2.53754000	-2.17346000
F	-1.77442900	4.60168800	-2.55128100
