20
c2mim-cl-p2-mp2-cp.com
N	0.00000000	0.00000000	0.00000000
C	0.00000000	0.00000000	1.34896900
N	1.28954300	0.00000000	1.75113500
C	2.12028100	-0.00411200	0.64666700
C	1.29764400	-0.00100100	-0.46980900
C	1.70311200	-0.06193100	3.17008900
C	0.71894600	0.68885400	4.06415400
C	-1.24589400	0.00995900	-0.78639900
Cl	-2.83028700	-0.06482600	2.49404600
H	-0.95263900	-0.01037400	1.95287800
H	3.20359700	-0.00473500	0.73025300
H	1.53958600	0.00890100	-1.52898700
H	-1.26894700	-0.87863400	-1.43102900
H	-2.07818400	-0.01046100	-0.06493100
H	-1.28028100	0.92424000	-1.39369700
H	2.71101900	0.37617200	3.21688400
H	1.76980000	-1.12385700	3.45199000
H	1.06347700	0.61367400	5.10649000
H	0.67586300	1.75181000	3.78371400
H	-0.29685000	0.26810600	3.99980700
