20
c2mim-cl-p4-mp2-cp.com
N	0.00000000	0.00000000	0.00000000
C	0.00000000	0.00000000	1.34690300
N	1.27704000	0.00000000	1.77813900
C	2.10950200	-0.14297700	0.68264500
C	1.30168400	-0.14216900	-0.43955100
C	1.60856600	-0.27434400	3.19021300
C	3.08960500	-0.07249400	3.48162000
C	-1.20525700	-0.27533200	-0.78524900
Cl	-0.47334200	-2.59935900	1.68827500
H	-0.87724300	0.08059600	1.97734100
H	3.18854800	-0.20752300	0.76747400
H	1.55313800	-0.21434600	-1.49339200
H	-1.46016900	-1.33524600	-0.62972800
H	-2.01999300	0.36912700	-0.43090300
H	-0.99372200	-0.05592300	-1.83914600
H	1.27667000	-1.31132400	3.36743300
H	0.99182400	0.40524000	3.79666500
H	3.25792300	-0.22191200	4.55817800
H	3.70804500	-0.80787500	2.94607000
H	3.42132600	0.94398100	3.21853000
