37
c2mim-tos-p2-mp2-cp.com
C	0.00000000	0.00000000	0.00000000
C	0.00000000	0.00000000	2.49352200
N	0.64911000	0.00000000	1.31979300
C	1.99772600	0.09840000	1.55723600
C	2.16289100	0.14744000	2.91985600
N	0.90972300	0.06543700	3.47864000
C	0.58580400	0.34729900	4.87643300
C	-0.05425300	-1.39935400	-0.58994900
H	-0.53790200	-1.36003600	-1.56568500
H	0.94510500	-1.81442400	-0.72137000
H	-0.62798600	-2.07032500	0.04904600
H	-0.98163300	0.44448900	0.15461600
H	0.57112200	0.69776300	-0.60847900
H	-1.06748000	0.05584500	2.61283900
H	2.71398400	0.16054900	0.75760200
H	3.04881000	0.25887100	3.51932200
H	-0.38487700	-0.08608900	5.10005100
H	1.34348700	-0.10950000	5.50734900
H	0.55217700	1.42786300	4.99545900
S	-0.36498200	3.05309800	1.83508300
O	0.65660800	2.90020100	0.75581200
O	-1.59146300	2.21870800	1.59630000
O	0.18523100	2.86097500	3.21572000
C	-0.90585400	4.75538500	1.76574500
C	-0.77144300	5.48045000	0.57983600
C	-1.24478700	6.79414300	0.52303900
C	-1.85330100	7.39653900	1.63354200
C	-1.97699200	6.64599800	2.81279300
C	-1.50884800	5.33268100	2.88677000
C	-2.32345600	8.82718200	1.57643400
H	-2.44397400	7.09525800	3.68353200
H	-1.59755200	4.75964600	3.80122300
H	-0.29301900	5.01796400	-0.27407600
H	-1.13840100	7.35917200	-0.39753500
H	-2.61391400	9.10165700	0.56201100
H	-1.53681800	9.51457500	1.89502200
H	-3.18349000	8.98135900	2.22874700
