20
c2mim-cl-p1-mp2-cp.com
N	0.00000000	0.00000000	0.00000000
C	0.00000000	0.00000000	1.34773000
N	1.27750200	0.00000000	1.77302000
C	2.11291400	0.11299800	0.67716400
C	1.30268600	0.11830600	-0.44335200
C	1.67911800	0.15810500	3.18172900
C	2.19470400	1.57397700	3.43966500
C	-1.20552900	0.26450100	-0.79067300
Cl	-0.72644300	2.59628300	1.62644700
H	-0.87693900	-0.05969400	1.98032000
H	3.19351700	0.16330000	0.77110100
H	1.55103800	0.18467800	-1.49842600
H	-0.97593600	0.07475400	-1.84652000
H	-2.00693900	-0.40858400	-0.46001700
H	-1.48654600	1.31374800	-0.60775500
H	2.43256700	-0.61337200	3.40373700
H	0.78056800	-0.04874700	3.78012300
H	2.41440700	1.68702900	4.51257400
H	3.12223100	1.76152500	2.87673100
H	1.42693100	2.30012400	3.13120600
