37
c2mim-tos-p1-mp2-cp.com
C	0.00000000	0.00000000	0.00000000
N	0.00000000	0.00000000	1.46543500
C	1.10413700	0.00000000	2.22940500
N	0.73482000	-0.18059300	3.50732400
C	-1.09206400	-0.21818700	2.26808500
C	-0.62917400	-0.32917400	3.55687500
C	1.67887600	-0.35313200	4.62767700
C	1.36491400	-1.61938000	5.40570300
H	1.32785200	-2.46499800	4.72280800
H	0.42070800	-1.53824500	5.94455400
H	2.15502200	-1.78371500	6.13789100
H	2.66099100	-0.43429100	4.16865100
H	1.62623000	0.54212400	5.24911000
H	-1.15749800	-0.51290900	4.47438300
H	-2.08809200	-0.29357400	1.86928300
H	-0.95999100	0.38255100	-0.33571400
H	0.18651800	-1.01565800	-0.33993500
H	0.79793400	0.64918000	-0.34776100
H	2.11700100	0.06499600	1.87339600
S	2.03968300	-2.84053300	1.71059600
O	0.67842100	-2.94384300	2.32662700
O	3.04227100	-2.20154200	2.62456500
O	2.01319400	-2.20749200	0.35357100
C	2.60178000	-4.51923500	1.47572700
C	1.67046400	-5.53619900	1.25217900
C	2.12186800	-6.83665200	1.01382600
C	3.97196600	-4.79298600	1.46080100
C	4.40556400	-6.09861000	1.22050600
C	3.49144700	-7.13874200	0.99440600
C	3.96826800	-8.55129300	0.77425400
H	4.06934300	-9.08640000	1.72097600
H	4.94074900	-8.56189200	0.28135300
H	3.26651700	-9.10692900	0.15171200
H	1.39943600	-7.62828000	0.84235700
H	5.46943000	-6.31316700	1.21036700
H	4.67793000	-3.99286700	1.64435700
H	0.61296100	-5.30507100	1.27697900
