24
c2mim-dca-p6-mp2-cp.com
N	0.00000000	0.00000000	0.00000000
C	0.00000000	0.00000000	1.34146700
N	1.27411300	0.00000000	1.76659300
C	2.10853700	0.02077200	0.67391700
C	1.30239900	0.02732700	-0.43964300
C	1.70507800	-0.01793400	3.16842000
C	-1.19941300	0.16875900	-0.83413500
C	-1.28007100	-0.90036700	-1.90914400
H	-2.19536700	-0.76041800	-2.48284300
H	-1.29544000	-1.89722700	-1.46998700
H	-0.44200100	-0.83642000	-2.60159200
H	-1.16104800	1.18256800	-1.22886500
H	-2.04832500	0.11707200	-0.15503200
H	-0.87319400	0.04927800	1.96730700
H	0.92856600	0.44597000	3.76900200
H	1.87770900	-1.04477100	3.48246000
H	2.61460300	0.57235900	3.23460800
H	3.17676100	0.09532400	0.77800800
H	1.55651100	0.07880400	-1.48297100
N	3.65364100	2.39693300	1.87576200
C	2.53885400	2.82702400	1.97572200
N	1.31219900	3.25171400	2.22617700
C	0.38792800	3.03320500	1.30967300
N	-0.53986900	2.83598200	0.57421600
