34
c2mim-ntf2-p2-mp2-cp.com
N	0.00000000	0.00000000	0.00000000
C	0.00000000	0.00000000	1.34377600
N	1.27779600	0.00000000	1.75893300
C	2.10753400	0.00483100	0.66210600
C	1.29972700	-0.00054400	-0.45179900
C	-1.21513300	-0.04285800	-0.82352800
C	1.67889500	0.04774300	3.18246100
C	1.27832000	1.36983000	3.81490100
H	0.19532700	1.47885700	3.81071200
H	1.61280600	1.38011200	4.85169500
H	1.73426800	2.20928400	3.28926100
H	1.19345400	-0.78414200	3.68936800
H	2.75725500	-0.10417700	3.19137500
H	3.17952900	0.01023400	0.75388900
H	1.54347400	-0.00298100	-1.49973500
H	-1.11784300	0.68831800	-1.62139400
H	-1.33379000	-1.04168300	-1.23647900
H	-2.05731100	0.21224700	-0.18584500
H	-0.86189700	-0.00210600	2.00504000
N	-2.05113800	0.00559100	3.51044800
S	-3.40263700	0.71140200	2.96498400
S	-1.99719500	-1.16210100	4.63075400
C	-3.31884900	2.32574600	3.87133000
C	-2.15064200	-2.67209200	3.55950400
O	-3.11614100	-1.23044500	5.56617500
O	-0.60310200	-1.22370700	5.09552400
O	-3.12522000	1.08515500	1.56349600
O	-4.67973800	0.10985700	3.33987900
F	-4.34670400	3.11236900	3.50666800
F	-2.16531200	2.96770900	3.58127600
F	-3.37148200	2.12202000	5.19721400
F	-3.31628000	-2.67571100	2.89178900
F	-1.14527000	-2.69100200	2.64266900
F	-2.06401700	-3.78892800	4.29948700
