20
c2mim-br-p1-mp2-cp.com
C	0.00000000	0.00000000	0.00000000
N	0.00000000	0.00000000	1.34729400
C	1.30792200	0.00000000	1.79257200
C	2.11276800	-0.06668800	0.66966600
N	1.27432200	-0.11650600	-0.42592800
C	-1.19457400	0.24408800	2.17549100
C	-1.12571800	1.62026900	2.83705900
C	1.66887500	0.10528800	-1.81973900
Br	-0.22693500	2.78646000	-0.57443100
H	-0.87959400	0.00847400	-0.63198800
H	1.56539300	0.03198600	2.84685300
H	3.19406800	-0.09251700	0.57262100
H	2.71565300	-0.20123700	-1.93699800
H	1.02979600	-0.50092700	-2.47443400
H	1.52405800	1.17760900	-2.02920600
H	-1.26691500	-0.57287800	2.91000000
H	-2.05448300	0.17960700	1.49380100
H	-2.06113100	1.79927500	3.38932300
H	-0.28996900	1.67256700	3.55189200
H	-0.99341700	2.39004800	2.06179300
