20
c2mim-br-p3-mp2-cp.com
C	0.00000000	0.00000000	0.00000000
N	0.00000000	0.00000000	1.34866500
C	1.29975800	0.00000000	1.81087500
C	2.12296700	-0.01213800	0.69502200
N	1.28861700	-0.00977100	-0.40583800
C	-1.23512500	0.08734600	2.16404100
C	-1.62264400	1.54574200	2.38959500
C	1.69479300	-0.02684800	-1.81567100
Br	-3.09451200	0.23159100	-0.87319600
H	-0.93753600	0.03016800	-0.60428200
H	1.54148200	-0.00035200	2.87020600
H	3.20597300	-0.02743900	0.60942900
H	2.24700900	-0.95184200	-2.02842000
H	0.78338400	0.01345200	-2.42491100
H	2.32359900	0.84848800	-2.02539900
H	-1.02607400	-0.44878800	3.10144700
H	-2.01993100	-0.42545500	1.58823100
H	-2.52060100	1.58298700	3.02460700
H	-0.81473900	2.10695000	2.88594400
H	-1.87291000	2.00451200	1.42160000
