34
c2mim-ntf2-p4-mp2-cp.com
C	0.00000000	0.00000000	0.00000000
C	0.00000000	0.00000000	1.37465800
N	1.31386800	0.00000000	-0.40392200
C	2.10003600	-0.00324100	0.68516300
N	1.31375300	0.01591400	1.77140800
C	1.78746600	-0.06103500	3.15426100
C	1.79653800	0.05122100	-1.79305400
C	2.13352500	1.47523500	-2.20653500
H	2.45966300	1.48176700	-3.24616400
H	1.26465600	2.12615300	-2.11297500
H	2.93962700	1.87806700	-1.59436500
H	2.65286400	-0.61794300	-1.84824300
H	1.00012600	-0.36785000	-2.40388500
H	-0.81290900	-0.02834500	-0.70414500
H	-0.80779200	-0.06010600	2.08183200
H	3.17248600	-0.08522700	0.68080900
H	1.70897000	0.91874400	3.62040900
H	2.82057600	-0.39455600	3.14104300
H	1.18048900	-0.79596500	3.67312800
N	1.63187000	-2.80635400	1.20047400
S	2.47835000	-3.49700300	0.00929600
S	0.72494500	-3.63505300	2.25774700
C	1.93006700	-4.11882900	3.58937400
C	1.22684000	-3.77662200	-1.34538400
O	3.04702100	-4.81947700	0.26583800
O	3.31378200	-2.41751000	-0.55380100
O	0.15234600	-4.89476400	1.78179900
O	-0.11501700	-2.63017700	2.93424400
F	2.58548700	-3.01972500	4.04124700
F	1.25916400	-4.65915100	4.62313600
F	2.83597500	-4.99743800	3.14710600
F	0.43380500	-4.82062000	-1.09498900
F	0.44315900	-2.67370900	-1.49679000
F	1.87113900	-3.98296200	-2.51134000
