24
c2mim-dca-p1-mp2-cp.com
C	0.00000000	0.00000000	0.00000000
N	0.00000000	0.00000000	1.37270100
C	1.26834800	0.00000000	1.81203000
N	2.07957300	-0.01498500	0.74099800
C	1.31317400	-0.01330200	-0.40060900
C	3.54422400	0.12219500	0.80145000
C	3.97158500	1.56259700	0.56479000
C	-1.17556000	0.17554100	2.23120900
H	-0.84063000	0.18509800	3.26484300
H	-1.87037700	-0.64190700	2.05675300
H	-1.62673700	1.13370800	1.98445900
H	1.56514900	0.05121700	2.84910100
H	1.74852000	0.00493100	-1.38402200
H	-0.90897900	0.04661600	-0.57262800
H	3.84560000	-0.22740000	1.78784600
H	3.95574300	-0.55968200	0.05746200
H	5.05929000	1.62100300	0.60605800
H	3.64247900	1.91078400	-0.41328400
H	3.55163700	2.21531600	1.32888700
N	0.36684900	2.98519400	0.68691800
C	0.93650500	3.01552700	1.74225800
N	1.65955100	3.07007500	2.85360600
C	1.29637400	2.22088300	3.79998100
N	1.04776900	1.40527200	4.64437200
