24
c2mim-dca-p2-mp2-cp.com
N	0.00000000	0.00000000	0.00000000
C	0.00000000	0.00000000	1.34273400
N	1.27672800	0.00000000	1.76028000
C	2.10420700	-0.00911100	0.66470500
C	1.29869700	-0.01246700	-0.44775600
C	1.69972800	-0.10283900	3.16174300
C	-1.21380200	-0.09719100	-0.82928000
C	-1.15244600	-1.30168000	-1.75438200
H	-2.11203700	-1.40652200	-2.25984000
H	-0.93429000	-2.20426900	-1.18718500
H	-1.31802700	0.83938100	-1.37817600
H	-0.38443900	-1.17621100	-2.51638100
H	-2.04410600	-0.17960100	-0.12969100
H	1.55046000	-0.04734800	-1.49209100
H	3.17541000	-0.04358700	0.75618100
H	2.40860600	0.69343600	3.37272600
H	2.14723200	-1.08134200	3.31684300
H	0.81673800	-0.00921900	3.78690900
H	-0.86221300	-0.04962400	1.99117300
N	0.73016000	-3.02198800	0.52794200
C	0.35334800	-3.03248300	1.66725400
N	0.02216800	-3.08766300	2.94864900
C	-0.81770800	-2.15376800	3.35711700
N	-1.51860500	-1.27747700	3.78281600
