42
c2mpyr-tos-p2-mp2-cp.com
C	0.00000000	0.00000000	0.00000000
C	0.00000000	0.00000000	1.52497900
N	1.37770300	0.00000000	2.16130500
C	2.13351000	1.24739700	1.76479400
C	2.16044900	-1.27292800	1.83659900
C	3.24053200	-1.34400500	2.91761200
C	2.64463600	-0.59993500	4.14887200
C	1.28064200	-0.06745100	3.67490000
H	-1.04161000	-0.08532500	-0.33030100
H	0.41737900	0.91606700	-0.42436500
H	0.56589200	-0.83660500	-0.41871500
H	-0.51599900	0.88050100	1.92306700
H	-0.50386100	-0.89096900	1.91304100
H	2.29051000	1.27476200	0.68506000
H	1.54524300	2.10625300	2.09839200
H	3.10909900	1.24221700	2.24678800
H	1.00980200	0.91878700	4.05882400
H	0.47421800	-0.76932700	3.90625500
H	2.50530000	-1.25976100	5.01025700
H	3.29695100	0.21637200	4.47249500
H	3.48184700	-2.38714900	3.13990300
H	4.15349900	-0.86686900	2.55209900
H	2.54116400	-1.24074800	0.81253400
H	1.43529000	-2.08868900	1.93039900
S	3.95762300	0.04089000	-1.07256800
O	3.15191500	-1.21923600	-1.18732900
O	3.13151500	1.27556100	-1.26431900
O	4.76279400	0.07113200	0.18978600
C	5.13823900	0.01179600	-2.43787900
C	5.22671900	1.08955800	-3.31601300
C	5.97994500	-1.09443300	-2.59415600
C	6.90703900	-1.11394000	-3.63379800
C	6.16243000	1.05770100	-4.35604200
C	7.01495300	-0.03859800	-4.53278700
C	8.02059500	-0.07726400	-5.66149100
H	4.56488100	1.93912600	-3.18217400
H	5.90335400	-1.93219600	-1.90738500
H	6.22699900	1.90184400	-5.04006500
H	7.55899200	-1.97798300	-3.75173500
H	7.79518200	-0.88548700	-6.36980600
H	9.03734700	-0.25110600	-5.28671900
H	8.02726600	0.86343700	-6.22253300
