29
c2mpyr-bf4-p2-mp2-cp.com
C	0.00000000	0.00000000	0.00000000
C	0.00000000	0.00000000	1.55713000
C	1.48440100	0.00000000	1.96210300
N	2.23171800	0.54751400	0.75926400
C	1.47246400	-0.08194100	-0.40862000
C	2.12511700	2.05520800	0.74300700
C	3.69009800	0.12678600	0.78648600
C	4.50280000	0.55118700	-0.43145100
F	0.72853100	2.61284300	-1.95808900
B	1.88905700	2.63926600	-2.79002100
F	2.22534700	1.28576200	-3.09638800
F	1.67066500	3.37520800	-3.93650900
F	2.96014900	3.18539300	-2.01855700
H	4.10698800	0.54609200	1.70810800
H	3.68104300	-0.96367500	0.88490100
H	2.54914800	2.45119700	-0.17899300
H	1.07501400	2.33886600	0.78530900
H	2.65670100	2.43248800	1.62025500
H	1.72547100	0.60770900	2.83750400
H	1.85594500	-1.01521300	2.12570900
H	-0.51755300	0.87907900	1.95267400
H	-0.49802500	-0.87917700	1.97510400
H	-0.44752600	0.91033600	-0.40517300
H	-0.55254600	-0.84763600	-0.41417600
H	1.72123700	0.43391200	-1.33635300
H	1.82278900	-1.11854100	-0.45743000
H	5.51633700	0.15337200	-0.30656100
H	4.09311200	0.15475500	-1.36383700
H	4.57596900	1.63529700	-0.53938800
