32
c2mpyr-mes-p2-mp2-cp.com
C	0.00000000	0.00000000	0.00000000
N	0.00000000	0.00000000	1.51198500
C	1.41669000	0.00000000	2.08744500
C	1.91041700	1.43351200	1.88698300
C	0.62896000	2.31803300	1.89405600
C	-0.54278300	1.32722800	2.01218900
C	-0.82622700	-1.16065200	2.03353400
C	-0.30698600	-2.54003600	1.64214400
H	0.47231400	-0.90577800	-0.38647100
H	-1.04087500	0.07100300	-0.32644900
H	0.57077400	0.85495400	-0.35715400
H	-1.43154700	1.58878400	1.43338600
H	-0.83422000	1.17335800	3.05527000
H	0.55276200	2.91321300	0.97945000
H	0.60758400	3.01795900	2.73458800
H	2.60695900	1.70627600	2.68464600
H	2.45248800	1.50230500	0.94027000
H	1.29624100	-0.24575400	3.14824600
H	2.03000400	-0.76473500	1.60419600
H	-1.84369900	-0.99782900	1.66181000
H	-0.84146900	-1.04572200	3.12216500
H	-0.94212600	-3.28459600	2.13608100
H	-0.34647100	-2.71862800	0.56520100
H	0.72694000	-2.70203800	1.95831500
S	3.01739700	-1.81861400	-0.64976900
O	3.18441800	-0.33319500	-0.75708700
O	1.75510000	-2.30776200	-1.29587700
O	3.16557100	-2.30763000	0.76178000
C	4.37784700	-2.55722100	-1.58454900
H	4.28497300	-3.64380500	-1.52486300
H	4.30308500	-2.22170600	-2.62120200
H	5.31946100	-2.22698800	-1.14053200
