29
c2mpyr-dca-p1-mp2-cp.com
C	0.00000000	0.00000000	0.00000000
N	0.00000000	0.00000000	1.52789600
C	1.49634600	0.00000000	1.84232600
C	2.12930700	-0.93902400	0.80701200
C	1.15110000	-0.93464000	-0.40202400
C	-0.63180800	-1.25149700	2.05532700
C	-0.66111200	1.23918800	2.12039900
C	-2.14106300	1.39316800	1.79251700
H	0.78619200	-1.94292700	-0.62362900
H	1.65154300	-0.55790800	-1.29761000
H	-0.98571100	-0.30852500	-0.35296500
H	0.19158100	1.03549400	-0.29208100
H	1.82430600	1.03306600	1.70704100
H	1.63081900	-0.29412100	2.88630900
H	3.11144900	-0.56668600	0.50454600
H	2.26282000	-1.94845900	1.20944300
H	-0.59694400	-1.22974800	3.14674300
H	-0.08395500	-2.11860200	1.68710700
H	-1.66676600	-1.30558300	1.71782100
H	-0.50136800	1.16843100	3.20154900
H	-0.09192300	2.08790000	1.72759300
H	-2.47739000	2.33557100	2.23760300
H	-2.76983600	0.59581300	2.20274300
H	-2.31594400	1.47073500	0.71500700
N	4.04235700	0.65477800	-1.57735800
C	3.62044000	1.72195800	-1.30986400
N	3.18481900	2.93495000	-1.03877300
C	2.14186700	3.04727700	-0.26591900
N	1.19702900	3.19883800	0.43071500
