39
c2mpyr-ntf2-p4-mp2-cp.com
N	0.00000000	0.00000000	0.00000000
C	0.00000000	0.00000000	1.51551200
C	1.48066900	0.00000000	1.92722300
C	2.24560100	0.60264700	0.71381700
C	1.17429400	0.91354500	-0.34043300
C	0.26892300	-1.38331600	-0.53725500
C	-2.54888800	-0.22890900	-0.24306200
C	-1.29239100	0.55689600	-0.59154200
H	-2.72259500	-0.30084100	0.83653100
H	-2.55215900	-1.22576300	-0.68908300
H	-3.39694600	0.30472500	-0.68355900
H	0.28413900	-1.32196300	-1.62644800
H	-0.52031500	-2.05408500	-0.19861800
H	1.23315400	-1.72798800	-0.16325400
H	-1.13694200	0.57743900	-1.67201100
H	-1.35838300	1.58365900	-0.21867200
H	1.48184800	0.73559800	-1.37256800
H	0.80038300	1.93678900	-0.24690500
H	2.78628500	1.51544600	0.97767400
H	2.98468600	-0.10170600	0.32238000
H	1.61570600	0.58729000	2.83972500
H	1.82699900	-1.01414100	2.14703900
H	-0.50465400	0.91948900	1.82599300
H	-0.57306300	-0.85456600	1.87770500
N	-0.00784100	-0.30287900	-3.66795000
S	1.35002100	0.24010500	-4.38174000
S	-1.30959600	-0.90676900	-4.44447900
C	-0.91921600	-2.75096500	-4.60308000
C	0.98265700	2.06603300	-4.71327700
O	2.36184100	0.30191600	-3.30975100
O	1.69501700	-0.33066000	-5.68131900
O	-2.40121900	-0.88187100	-3.45756900
O	-1.53623700	-0.44093100	-5.81064900
F	-0.65860800	-3.27819400	-3.38461200
F	-1.98148100	-3.38722100	-5.11556700
F	0.13869800	-2.96600200	-5.38802500
F	-0.02600500	2.21954900	-5.57311400
F	2.07697100	2.65944200	-5.21029600
F	0.65461900	2.68809300	-3.55701600
