39
c2mpyr-ntf2-p5-mp2-cp.com
C	0.00000000	0.00000000	0.00000000
C	0.00000000	0.00000000	1.53244000
C	1.50052000	0.00000000	1.93984100
C	2.30000300	0.09663500	0.63038400
N	1.31628100	0.64023100	-0.40807400
H	1.70817500	-0.86558100	-1.81308900
C	1.21671600	2.14313100	-0.30308200
C	1.67516800	0.22804900	-1.82613800
C	2.98134700	0.79822700	-2.36381200
H	0.82692000	0.53198200	-2.44860800
H	0.51545900	2.49046000	-1.06549000
H	0.87009500	2.41206500	0.69296800
H	2.20792400	2.57001200	-0.44053000
H	3.83347700	0.57626900	-1.71747500
H	2.94376000	1.88083800	-2.50382100
H	3.16303900	0.34019500	-3.34248700
H	-0.51106200	0.88283600	1.92675600
H	-0.53804900	-0.87554500	1.90655700
H	1.77892000	-0.91062500	2.47736300
H	1.73105700	0.85023700	2.58276200
H	-0.81956900	0.55255600	-0.46529300
H	0.01200800	-1.01775200	-0.40080800
H	2.60898200	-0.88717800	0.26491800
H	3.16192800	0.76195300	0.67812000
N	5.11510500	3.95148200	2.04915500
S	3.86325700	3.57201100	2.99306600
S	5.31256100	3.52717100	0.51038400
C	4.69810900	5.05272300	-0.41523300
C	4.53464900	2.09114500	3.95190200
O	3.68428700	4.60880400	4.00544700
O	2.67028100	3.02302300	2.31465900
O	6.73746600	3.45837900	0.19770400
O	4.42903600	2.45235700	0.00044400
F	5.41234200	6.13622500	-0.10607400
F	3.40276300	5.28983800	-0.12372700
F	4.79021300	4.83834600	-1.74275400
F	5.63588400	2.40100100	4.63761300
F	3.59659200	1.65305300	4.81496200
F	4.82324400	1.07579000	3.10831100
