25
c2mpyr-cl-p3-mp2-cp.com
N	0.00000000	0.00000000	0.00000000
C	0.00000000	0.00000000	1.51215800
C	1.48386300	0.00000000	1.92397600
C	2.25393900	-0.56174700	0.69244900
C	1.17711900	-0.91375300	-0.33843400
C	0.26655300	1.38536200	-0.53999200
C	-1.27646200	-0.56671600	-0.61184900
C	-2.53390400	0.24808400	-0.33843200
Cl	0.42188100	-0.12346300	-3.55626400
H	-1.06060600	-0.63238700	-1.68770400
H	-1.37021900	-1.57593300	-0.19851300
H	-0.53200700	2.04884300	-0.20721600
H	1.22124600	1.73868900	-0.14951600
H	0.30497400	1.30178100	-1.63486300
H	1.41725100	-0.76597700	-1.39836400
H	0.81094100	-1.93564300	-0.20167000
H	2.95334900	0.17895500	0.29406200
H	2.84074500	-1.44988100	0.94263200
H	1.82227400	1.00981300	2.17468600
H	1.62351300	-0.61447200	2.81805300
H	-0.57030000	0.85523600	1.87851300
H	-0.50366400	-0.91943200	1.82486400
H	-3.38230300	-0.31149700	-0.74693700
H	-2.72728600	0.40409100	0.72957400
H	-2.51967800	1.21640400	-0.84630500
