31
c2mpyr-pf6-p2-mp2-cp.com
C	0.00000000	0.00000000	0.00000000
C	0.00000000	0.00000000	1.55649700
C	1.48401500	0.00000000	1.96186500
N	2.23628300	0.53952100	0.75705700
C	1.47280500	-0.08194100	-0.41136300
C	2.14214100	2.04657700	0.73437900
C	3.69144200	0.10293600	0.79330600
C	4.53223500	0.56347500	-0.39135200
F	0.87487200	2.51635900	-2.07400100
P	2.02256000	2.82145400	-3.25245600
F	3.08770600	3.22419800	-2.03062100
F	0.96238600	2.36606700	-4.39761200
F	3.18659900	3.07590800	-4.35484400
F	2.52338500	1.23512200	-3.08623400
F	1.52795200	4.36647600	-3.33399200
H	4.09440400	0.48277800	1.73819500
H	3.66748900	-0.98970200	0.85099800
H	2.54610700	2.43028100	-0.20079700
H	1.09574600	2.33866000	0.80715800
H	2.69945500	2.42823100	1.59319500
H	1.72617700	0.61280000	2.83301600
H	1.85387600	-1.01491900	2.13231400
H	-0.51911200	0.87742200	1.95246500
H	-0.49749300	-0.88032900	1.97315200
H	-0.45182000	0.90946800	-0.40305600
H	-0.55360200	-0.84634700	-0.41516600
H	1.71489100	0.44295000	-1.33387700
H	1.82095800	-1.11802200	-0.47254400
H	5.52671500	0.11633200	-0.28347300
H	4.11614300	0.24430200	-1.34997800
H	4.65446600	1.64817100	-0.42913600
