27
c3mim-bf4-p1-mp2-cp.com
N	0.00000000	0.00000000	0.00000000
C	0.00000000	0.00000000	1.34113500
N	1.27237600	0.00000000	1.76447200
C	2.10447600	0.02067000	0.66985600
C	1.30034200	0.02252500	-0.44366900
C	1.68481800	0.13726200	3.17156000
C	2.50488900	1.40375200	3.37956100
C	2.72728400	1.65714800	4.86715100
C	-1.18977700	0.17834400	-0.83615500
F	0.31217500	2.75264100	1.06709300
B	-0.85156200	2.83439800	1.89848600
F	-0.55402800	2.14454700	3.12217800
F	-1.90149300	2.11308000	1.24512900
F	-1.20897800	4.15195100	2.13801700
H	-0.86963900	0.08285000	1.96764800
H	3.17560700	0.03500200	0.76077100
H	1.54715000	0.04592300	-1.49039900
H	-1.07002400	-0.42050200	-1.73503000
H	-2.05776900	-0.15142800	-0.27596500
H	-1.29701300	1.23423300	-1.06579600
H	2.23957900	-0.76120500	3.44941700
H	0.76475300	0.18748600	3.74973000
H	3.46691100	1.30532900	2.86975600
H	1.96493400	2.23420900	2.92753000
H	3.34743000	2.54006700	5.01407100
H	1.77452900	1.82967800	5.36737800
H	3.22507500	0.81270800	5.34774400
