23
c3mim-br-p2-mp2-cp.com
C	0.00000000	0.00000000	0.00000000
N	0.00000000	0.00000000	1.38000100
C	1.26909400	0.00000000	1.83500200
N	2.08709200	0.00027000	0.76122600
C	1.32999200	-0.00242100	-0.39455700
C	-1.16251100	0.01066600	2.28544900
C	3.56126900	-0.05299100	0.86351000
C	4.06808600	0.73390800	2.07314500
C	5.59583800	0.64536500	2.16085600
Br	1.44891500	-0.03750900	5.05270600
H	1.52568700	-0.00410800	2.92316400
H	1.77659500	-0.00316400	-1.38500600
H	-0.91399400	0.00938000	-0.58732300
H	-1.77398500	-0.88066300	2.09292400
H	-0.76782600	-0.00377500	3.31388400
H	-1.74739200	0.92284900	2.10799600
H	3.95574900	0.36053200	-0.07771600
H	3.85638500	-1.11238000	0.93116100
H	3.74670900	1.78405200	1.97296900
H	3.61435200	0.34267300	2.99944700
H	5.95973100	1.21295800	3.02919400
H	5.92286500	-0.39968000	2.28351700
H	6.07879700	1.05511600	1.25833900
