23
c3mim-br-p3-mp2-cp.com
C	0.00000000	0.00000000	0.00000000
N	0.00000000	0.00000000	1.38117600
C	1.27266700	0.00000000	1.83530400
N	2.08701900	-0.00489400	0.76018200
C	1.33040700	0.00298500	-0.39251900
C	-1.17615200	-0.00978300	2.25811300
C	3.56147000	0.07801600	0.86873900
C	4.01547800	1.52943300	1.02174600
C	5.52029500	1.57432700	1.30649200
Br	3.28122700	0.20931600	4.36806600
H	1.65667700	0.02508900	2.88058000
H	1.77813500	0.00185700	-1.38247700
H	-0.91511200	-0.00686800	-0.58559300
H	-1.75207400	-0.92967800	2.09116000
H	-0.81921100	0.02482500	3.29480400
H	-1.79666700	0.87111000	2.04703900
H	3.97488000	-0.40162900	-0.03195800
H	3.83709500	-0.48667300	1.77249700
H	3.75934200	2.10350700	0.11357000
H	3.47286300	1.95438500	1.88131400
H	5.86463700	2.61426200	1.40858800
H	5.72761700	1.04919700	2.25174300
H	6.10016000	1.10201200	0.49560600
