40
c3mim-tos-p1-mp2-cp.com
C	0.00000000	0.00000000	0.00000000
N	0.00000000	0.00000000	1.46545700
C	1.10536600	0.00000000	2.22779900
N	0.73841700	-0.18404800	3.50596200
C	-0.62531300	-0.33652100	3.55740800
C	-1.09039700	-0.22243800	2.26933300
C	1.68461800	-0.39164200	4.61642900
C	1.39044200	-1.69691000	5.34525200
C	2.56988000	-2.08371400	6.23124600
H	3.44608400	-2.27802500	5.61290800
H	2.34433900	-2.98827700	6.79483900
H	2.81177000	-1.29469400	6.94657700
H	0.48575900	-1.58762700	5.95034600
H	1.21004600	-2.46660700	4.59517200
H	2.66841000	-0.44631500	4.15482900
H	1.62894400	0.47455400	5.27924400
H	-1.14969400	-0.52460900	4.47654300
H	-2.08714700	-0.29624900	1.87194700
H	2.11740700	0.06605400	1.86944500
H	-0.97172600	0.35174100	-0.33546200
H	0.77667600	0.67403600	-0.34880500
H	0.21709200	-1.00963200	-0.34003600
S	2.07067200	-2.83163200	1.68895700
O	2.09163300	-2.15871300	0.35122300
O	0.68936800	-2.94008200	2.25852800
O	3.04942100	-2.22999600	2.65289900
C	2.62572900	-4.50789700	1.42315400
C	1.69186800	-5.51646300	1.17443900
C	2.13938400	-6.81550300	0.92056900
C	3.50772200	-7.12319200	0.90520700
C	4.42452200	-6.09192000	1.15977100
C	3.99478200	-4.78798800	1.41585500
H	3.24727300	-9.26064000	0.90586400
C	3.98276400	-8.51894800	0.59325400
H	4.92106400	-8.73542600	1.10467100
H	4.15069000	-8.64771800	-0.47817800
H	1.41449200	-7.60255900	0.73881900
H	5.48706000	-6.31301400	1.16451800
H	4.70287200	-3.99650500	1.62691200
H	0.63514000	-5.28226800	1.20256000
