23
c3mim-br-p1-mp2-cp.com
C	0.00000000	0.00000000	0.00000000
N	0.00000000	0.00000000	1.38082200
C	1.27758600	0.00000000	1.81239100
N	2.08874500	-0.11925800	0.74323800
C	1.32021900	-0.08211700	-0.40472600
C	-1.12701700	0.37201200	2.24057600
C	3.55426100	0.01091000	0.80785800
C	4.02136900	1.30502500	0.13659100
C	5.52007800	1.51690300	0.37468300
Br	1.44085000	2.79892400	2.33197000
H	1.59516500	0.01375000	2.84769900
H	1.75379200	-0.12784700	-1.39887600
H	-0.91771200	0.04693900	-0.57869200
H	-2.05921100	0.14794200	1.70743900
H	-1.08046700	-0.21384500	3.16746100
H	-1.02425600	1.44673400	2.46163100
H	4.00333000	-0.88290600	0.34515700
H	3.81227900	0.02185400	1.87761200
H	3.81262000	1.25179100	-0.94583600
H	3.43063100	2.13163800	0.56326200
H	5.86506100	2.43087700	-0.13084200
H	5.72767400	1.63125200	1.45056000
H	6.11813600	0.67196200	-0.00677000
