30
c3mim-mes-p1-mp2-cp.com
C	0.00000000	0.00000000	0.00000000
N	0.00000000	0.00000000	1.34247500
C	1.29957400	0.00000000	1.78589900
C	2.10282200	-0.01886100	0.67096400
N	1.27434000	-0.03034300	-0.42302400
C	1.68312800	0.08554800	-1.82672700
C	-1.20544100	0.18041300	2.16985300
C	-1.04543200	1.36687800	3.11138100
C	-2.39508600	1.75374800	3.70663100
H	-2.27971600	2.57043800	4.41839100
H	-3.06591500	2.08489300	2.91413900
H	-2.85834700	0.91555300	4.23143900
H	-0.34147200	1.11511200	3.90970800
H	-0.63091900	2.19440100	2.53623500
H	-2.01425700	0.37797600	1.46948600
H	-1.39269200	-0.75188900	2.70697200
H	-0.87002100	0.08219500	-0.62733300
H	1.55231700	0.03219400	2.82995000
H	3.17398000	-0.00794900	0.57566500
H	1.37452000	-0.80444400	-2.36968800
H	2.76527300	0.17180300	-1.84787800
H	1.21000400	0.98008400	-2.22876500
S	-0.64776400	2.94682700	-0.44245200
C	-1.01112300	4.67777100	-0.68786600
O	0.53936400	2.88672600	0.47009000
O	-0.36141900	2.38890000	-1.80502400
O	-1.87595600	2.34957300	0.17923800
H	-1.22736700	5.12093000	0.28091900
H	-0.14035400	5.14700200	-1.13855700
H	-1.87259100	4.75368800	-1.34613700
