28
c3mpyr-cl-p2-mp2-cp.com
C	0.01809100	0.07806700	0.01465300
C	0.02204700	0.08050500	1.54521700
N	1.50286300	0.00465500	1.92070500
C	2.05985900	-0.96910900	0.90031500
C	1.31683100	-0.66617000	-0.41272100
C	2.15855500	1.35862800	1.76132400
C	1.71783400	-0.52552600	3.32730900
C	1.28752400	0.40692600	4.45864900
C	1.35074100	-0.33191900	5.80224300
H	3.17322900	1.29156800	2.16121500
H	2.19581500	1.60553200	0.70005900
H	1.54491500	2.10752300	2.28211100
H	1.16367400	-1.46947200	3.37218100
H	2.78656800	-0.76075900	3.39906200
H	-0.41104000	0.98396900	2.00310400
H	-0.43719000	-0.82458500	1.95553100
H	0.00496600	1.10455200	-0.36324900
H	-0.88409700	-0.41249500	-0.36071800
H	1.92649700	-0.05027600	-1.08053300
H	1.10607600	-1.59916200	-0.94349500
H	3.14525700	-0.85097300	0.85454400
H	1.83034500	-1.97324500	1.26828500
H	1.94039600	1.28504900	4.49155300
H	0.28230100	0.80277100	4.27986500
H	1.06670700	0.34532000	6.61381000
H	0.66135300	-1.18559200	5.82696400
H	2.35984800	-0.70700900	6.01948200
Cl	-0.52709100	3.09127900	2.88890900
