35
c3mpyr-mes-p2-mp2-cp.com
N	0.00000000	0.00000000	0.00000000
C	0.00000000	0.00000000	2.43184700
C	1.47064100	0.00000000	1.92017600
C	1.39254300	-0.43669000	0.45631600
C	-0.07857300	1.49160700	-0.23417600
C	0.38403800	-0.50926100	-2.49342800
C	-0.45570600	-0.74883400	-1.23770700
H	0.47589100	-1.22087300	-4.53930800
C	-0.85261100	-0.36243900	1.20307300
C	-0.11953100	-1.39925400	-3.63840000
H	-0.03755700	-2.46570200	-3.39168900
H	-1.16821500	-1.18998200	-3.88675500
H	-0.44137200	-1.80998100	-0.96521500
H	-1.03454500	-1.43945200	1.14475700
H	1.44073700	-0.71480200	-2.29390300
H	-1.49979000	-0.45779900	-1.40206800
H	-1.80912300	0.16043600	1.13195100
H	-0.16717700	-0.73212800	3.22738500
H	-0.28042100	0.97840000	2.83271300
H	1.92708600	0.99137300	1.98035000
H	2.10596500	-0.68845700	2.48430000
H	1.39926300	-1.52747200	0.35469400
H	2.16263700	-0.00733800	-0.18940000
H	0.22021400	2.01169100	0.67395900
H	0.60057000	1.79215500	-1.03476400
H	-1.11525200	1.72842900	-0.48788600
H	0.33997900	0.54097400	-2.79611300
S	3.28323800	2.16175700	-1.28643700
O	3.63325000	0.71690800	-1.49498700
O	2.16798800	2.61619000	-2.18076100
O	3.03673300	2.48465700	0.15600600
C	4.74170700	3.10944500	-1.78176800
H	4.95062700	2.89476900	-2.83206900
H	5.58036800	2.80302200	-1.15282000
H	4.52441400	4.17069200	-1.64261800
