42
c3mpyr-ntf2-p2-mp2-cp.com
C	0.00000000	0.00000000	0.00000000
C	0.00000000	0.00000000	1.55561800
C	1.47664800	0.00000000	1.96579500
N	2.22114700	-0.63173700	0.79104300
C	1.47885600	-0.05619200	-0.41451100
C	3.68925600	-0.23019600	0.74200800
C	4.52662800	-0.65508900	1.94785600
C	5.96849000	-0.14956300	1.78532100
C	2.07036400	-2.12291700	0.80956000
H	5.99863700	0.94285500	1.71086000
H	6.44080700	-0.56555800	0.88692700
H	6.57434800	-0.44362400	2.64831100
H	4.10102200	-0.23332900	2.86543200
H	4.53790800	-1.74634200	2.05900500
H	3.69038700	0.85702100	0.64299500
H	4.08631200	-0.66586800	-0.18197700
H	2.61850600	-2.54434200	-0.03597400
H	1.01389100	-2.37866700	0.72651800
H	2.46632900	-2.51893100	1.74450100
H	1.69412100	-0.68175500	-1.28432600
H	1.88298600	0.94491800	-0.56651600
H	-0.56268800	-0.85070900	-0.39768700
H	-0.45480900	0.90732200	-0.40483400
H	-0.47640600	0.89062000	1.97062500
H	-0.52974500	-0.87402400	1.94865600
H	1.69869800	-0.56484700	2.87249600
H	1.84514900	1.02083700	2.06427200
N	2.22587900	4.88369800	2.04458200
S	2.49379400	4.22727700	0.60481200
S	1.63753800	4.11524800	3.34247500
C	3.21289300	3.67961100	4.28811900
C	0.90211900	4.58946700	-0.34369500
O	3.52010700	4.98905800	-0.10269700
O	2.57141600	2.74579700	0.55889900
O	0.95607200	5.08006000	4.19988200
O	1.01070100	2.80271900	3.09515900
F	3.91823700	4.76868800	4.60142300
F	3.99617200	2.85984100	3.54989800
F	2.89277000	3.03051600	5.42189500
F	0.98455000	4.04322600	-1.57504600
F	0.69654600	5.90145400	-0.47154200
F	-0.15866800	4.04279800	0.28028200
