28
c3mpyr-br-p2-mp2-cp.com
C	0.00000000	0.00000000	0.00000000
C	0.00000000	0.00000000	1.55666800
C	1.47172600	0.00000000	1.97248700
N	2.19050400	0.68730200	0.81150300
C	1.48047000	0.12287400	-0.40441500
C	1.99104000	2.18695400	0.87381600
C	3.66977200	0.35302300	0.76725500
C	4.49487200	0.85102600	1.95222700
C	5.96167500	0.43286100	1.78353100
Br	2.15868100	2.40693600	4.36096400
H	2.64193600	2.64577200	0.12585700
H	0.94922700	2.40989300	0.64251400
H	2.20968000	2.53094100	1.89421800
H	3.72509700	-0.73873000	0.69220900
H	4.04328500	0.77339600	-0.17411200
H	1.68184300	0.55573500	2.89868000
H	1.88403200	-1.01308800	2.02182300
H	-0.50191000	0.88644900	1.95542600
H	-0.51213400	-0.87189500	1.97252800
H	-0.59126500	0.82999400	-0.39795000
H	-0.42133900	-0.91981800	-0.41591000
H	1.67281400	0.77384700	-1.26075700
H	1.92464400	-0.85686600	-0.60147900
H	4.42937600	1.93952200	2.03758300
H	4.09288700	0.46243900	2.89254400
H	6.55072200	0.79285000	2.63286500
H	6.07335000	-0.65842600	1.74121600
H	6.40397000	0.85244100	0.87044500
