28
c3mpyr-br-p3-mp2-cp.com
C	0.00000000	0.00000000	0.00000000
C	0.00000000	0.00000000	1.55768600
C	1.48425900	0.00000000	1.96303700
N	2.22467600	0.58442500	0.78119600
C	1.47674300	-0.00655200	-0.41272300
C	2.09587100	2.08962900	0.75814500
C	3.69058500	0.16914800	0.71457300
C	4.59215900	0.76147300	1.79393300
C	5.99014300	0.13159800	1.69873000
Br	3.75306300	1.91741900	-2.32707100
H	2.61937700	2.44500500	-0.13924800
H	1.03806300	2.34994900	0.71075900
H	2.53283400	2.49325900	1.67170100
H	3.68349400	-0.92491000	0.77126100
H	4.02346900	0.48405900	-0.28434800
H	1.70970700	0.57970700	2.85976000
H	1.86283300	-1.01736600	2.09763400
H	-0.51481800	0.88119700	1.95209600
H	-0.50277600	-0.87699700	1.97536800
H	-0.51519300	0.88168200	-0.39217400
H	-0.50945200	-0.87539600	-0.41197500
H	1.76003200	0.57090800	-1.30000600
H	1.85744800	-1.02552100	-0.52798100
H	4.68427200	1.84334600	1.65118900
H	4.18084400	0.59228800	2.79930600
H	6.66312100	0.57553300	2.43989500
H	5.95761300	-0.95009100	1.87936800
H	6.42356200	0.29846300	0.70644500
