32
c3mpyr-bf4-p2-mp2-cp.com
N	0.00000000	0.00000000	0.00000000
C	0.00000000	0.00000000	1.51883100
C	1.48196000	0.00000000	1.93073400
C	2.24766300	-0.56722400	0.69955900
C	1.16865000	-0.93014100	-0.32386400
C	0.25213600	1.40131500	-0.50543100
C	-1.31874900	-0.52460700	-0.53946800
C	-1.42498300	-0.59091000	-2.06330100
C	-2.74163200	-1.26855800	-2.46883300
F	0.97541600	1.43503800	-3.52870300
B	2.15491200	0.63354600	-3.47640500
F	2.83509200	0.94392700	-2.26023400
F	2.96075700	0.85094200	-4.57554500
F	1.74420000	-0.73310100	-3.39635700
H	-0.60915900	2.01357000	-0.22640700
H	1.15633600	1.78965800	-0.03950600
H	0.39543900	1.39099700	-1.58570700
H	-1.44071700	-1.52203100	-0.10355600
H	-2.09662600	0.12351800	-0.11937500
H	1.46928900	-0.80699100	-1.36367200
H	0.78548400	-1.94406100	-0.16872400
H	2.93140600	0.17031500	0.27263300
H	2.83957900	-1.45146200	0.95087100
H	1.82374700	1.00887700	2.17912500
H	1.61770400	-0.61280800	2.82648400
H	-0.57922500	0.85560600	1.87346700
H	-0.50338100	-0.91936700	1.83101500
H	-1.38058800	0.41216700	-2.49737200
H	-0.57642600	-1.13782600	-2.48581900
H	-2.82159400	-1.30501200	-3.55968300
H	-2.79874900	-2.29953300	-2.09702500
H	-3.61544100	-0.72322600	-2.08941600
