26
c4mim-br-p2-mp2-cp.com
N	0.00000000	0.00000000	0.00000000
C	0.00000000	0.00000000	1.38160800
C	1.32890300	0.00000000	1.78072800
N	2.08495500	-0.00434200	0.62611100
C	1.27254600	-0.00443100	-0.44961400
C	3.55289600	0.00194600	0.50265100
C	-1.17511000	-0.05391600	-0.89762900
C	-0.92534100	0.72910300	-2.18649200
C	-2.11782900	0.61315500	-3.14306200
C	-1.86166900	1.38867700	-4.44103200
Br	2.81625500	-0.05407600	-3.28166300
H	1.65061600	-0.01215000	-1.50174000
H	-0.91626100	0.00265700	1.96548500
H	1.77143900	0.01060100	2.77293800
H	3.95835100	-0.88947300	0.99901600
H	3.78418100	-0.01525900	-0.57402000
H	3.94940700	0.91386200	0.96830400
H	-2.02315000	0.35979300	-0.33030800
H	-1.38205300	-1.11394300	-1.11505100
H	-0.74173900	1.78802500	-1.93318500
H	-0.01739700	0.35507300	-2.69196000
H	-2.28982800	-0.45231900	-3.37722000
H	-3.03549900	0.98651300	-2.65304600
H	-2.70543900	1.28475500	-5.14045100
H	-1.72118500	2.46169300	-4.23306900
H	-0.95050800	1.01855700	-4.93654600
