26
c4mim-br-p3-mp2-cp.com
C	0.00000000	0.00000000	0.00000000
C	0.00000000	0.00000000	1.38732200
N	1.32461100	0.00000000	1.77818100
C	2.12026900	-0.00291000	0.68594300
N	1.31947800	-0.00962100	-0.39929800
C	1.83292800	-0.00665100	3.15444700
C	1.84482900	0.07195100	-1.78181300
C	2.17680800	1.51672000	-2.15194400
C	2.92159800	1.56674700	-3.49018200
C	3.33579100	2.99736700	-3.85091400
Br	5.12477600	0.21784700	-0.51955600
H	3.23127200	0.02373000	0.61393200
H	-0.82269200	-0.00193800	-0.70963000
H	-0.82063900	-0.00460000	2.09930300
H	1.50998000	-0.92546500	3.66163200
H	2.92825100	0.02812400	3.10537100
H	1.45465900	0.87535900	3.68784500
H	1.08238100	-0.37318800	-2.43929600
H	2.76830500	-0.52635600	-1.79699100
H	1.25527000	2.12691500	-2.18662200
H	2.84214100	1.91248000	-1.36660300
H	3.81991900	0.93383700	-3.39618300
H	2.28899400	1.14153500	-4.29091800
H	3.87490900	3.02594900	-4.81045200
H	2.45640300	3.65790100	-3.93519100
H	4.00248500	3.40528900	-3.07471000
