30
c4mim-dca-p1-mp2-cp.com
C	0.00000000	0.00000000	0.00000000
N	0.00000000	0.00000000	1.34374800
C	1.29995200	0.00000000	1.79123100
C	2.10531400	-0.00577900	0.67883700
N	1.27670300	-0.01261200	-0.41546200
C	1.69604800	0.14239900	-1.81176100
C	-1.20118300	0.17429200	2.17529500
C	-1.38866300	1.63319200	2.57169100
C	-2.63899000	1.82600100	3.42543800
C	-2.83150700	3.28870100	3.81529600
H	-2.92337800	3.91236600	2.92602000
H	-3.72966400	3.41997000	4.41845500
H	-1.97990700	3.64992700	4.39311400
H	-2.57232200	1.20776800	4.32634700
H	-3.51299700	1.47876800	2.86664200
H	-0.50526500	1.97451400	3.11876000
H	-1.45884600	2.23790000	1.66465400
H	-2.04458900	-0.18666400	1.58583800
H	-1.08793500	-0.47566800	3.04446300
H	1.54584800	0.03149600	2.83792800
H	3.17604400	0.03088100	0.58603900
H	2.21726400	1.09289500	-1.89846700
H	2.34406500	-0.68634300	-2.08523000
H	0.80432900	0.15777000	-2.43254200
H	-0.86264300	0.05176100	-0.64763600
N	1.39585900	2.98213200	0.34858900
C	0.31681400	3.02415300	-0.17437200
N	-0.91884100	3.10076800	-0.65223400
C	-1.20684000	2.22440300	-1.59982100
N	-1.52498600	1.39115800	-2.40269300
