26
c4mim-br-p1-mp2-cp.com
C	0.00000000	0.00000000	0.00000000
C	0.00000000	0.00000000	1.38341300
N	1.32045500	0.00000000	1.78734300
C	2.10609900	0.07710300	0.69411200
N	1.32275900	0.00933500	-0.39987400
C	1.80734800	0.30091000	3.13652100
C	1.81019900	0.24706100	-1.76994100
C	1.27773100	1.57569800	-2.31192900
C	1.98483300	1.96311100	-3.61479500
C	1.44797400	3.28781100	-4.16947400
Br	2.60690100	2.88587800	0.85013700
H	3.18848900	0.11387200	0.69448400
H	-0.82290700	-0.01654800	-0.70783000
H	-0.82209000	-0.00957500	2.09288700
H	1.02947500	0.01987600	3.85718600
H	2.71747900	-0.28166200	3.32826200
H	2.03001900	1.37968100	3.16765300
H	1.51857200	-0.61028000	-2.39748200
H	2.90798500	0.27734500	-1.70009600
H	0.18925000	1.49696600	-2.48604100
H	1.45304300	2.34248400	-1.53850100
H	3.06606700	2.05952500	-3.41367300
H	1.86533700	1.16274000	-4.36816500
H	1.97346500	3.57853700	-5.09228400
H	0.37301800	3.20921300	-4.40098100
H	1.58002000	4.09287800	-3.42961100
