30
c4mim-dca-p3-mp2-cp.com
N	0.00000000	0.00000000	0.00000000
C	0.00000000	0.00000000	1.34240000
N	1.27704600	0.00000000	1.76175300
C	2.10773200	0.02490200	0.66697800
C	1.30134900	0.02221500	-0.44460100
C	1.71189800	0.15496500	3.15170400
C	-1.19855700	0.08444200	-0.84714500
C	-1.34256700	-1.14130000	-1.73637700
C	-2.59948800	-1.05642800	-2.59937400
C	-2.76364000	-2.27602000	-3.50077800
H	-1.91400100	-2.37627700	-4.17750700
H	-2.83277600	-3.18969300	-2.90898700
H	-3.66676000	-2.19820900	-4.10524900
H	-3.47339700	-0.95680700	-1.95026700
H	-2.55656600	-0.14984000	-3.20884100
H	-1.10516400	1.00516400	-1.42530700
H	-2.04490800	0.20670600	-0.17331300
H	-0.46492600	-1.23880000	-2.38218700
H	-1.38134600	-2.03676300	-1.10895200
H	1.54888300	0.06236500	-1.49031900
H	-0.87573700	0.06289000	1.96491100
H	0.83401000	0.10799500	3.78955200
H	2.39507800	-0.65234700	3.40259200
H	2.19446100	1.12648400	3.23849100
H	3.17528800	0.10740500	0.76467600
N	-1.95824400	2.35604300	1.35297100
C	-0.91588000	2.77904600	0.93652100
N	0.20264400	3.17178500	0.34926100
C	1.31196000	3.05168800	1.06308600
N	2.36822400	2.91648400	1.61421900
