30
c4mim-dca-p2-mp2-cp.com
N	0.00000000	0.00000000	0.00000000
C	0.00000000	0.00000000	1.34404600
N	1.27662000	0.00000000	1.76200000
C	2.10542100	-0.02864100	0.66856200
C	1.30073800	-0.01509800	-0.44461100
C	1.69828900	-0.21735800	3.14631800
C	-1.20870400	-0.05903100	-0.84270200
C	-1.24284900	-1.35116400	-1.64786500
C	-2.59911100	-1.54736100	-2.32048200
C	-2.64850100	-2.84739200	-3.11721100
H	-3.62252600	-2.98337400	-3.58683100
H	-2.46512400	-3.70058600	-2.46358200
H	-1.89150400	-2.85282000	-3.90321600
H	-2.81300900	-0.69904200	-2.97859700
H	-3.37107700	-1.55914900	-1.54712300
H	-1.04596100	-2.18942100	-0.97683600
H	-0.45194700	-1.34182800	-2.40472000
H	-2.05589800	-0.01738800	-0.15971000
H	-1.20913500	0.82560800	-1.48219900
H	-0.88297600	-0.04777300	1.96088300
H	1.54946600	-0.03495200	-1.49056800
H	3.17489400	-0.08814700	0.76373900
H	0.85837100	0.00470400	3.79828000
H	1.98991700	-1.26100100	3.24357200
H	2.52502500	0.45080600	3.37210500
N	1.40111000	-2.93352000	1.44451300
C	0.22012100	-3.13718300	1.38039300
N	-1.06372100	-3.44253200	1.27285700
N	-2.69848000	-1.55875800	1.63155500
C	-1.90211500	-2.44573300	1.49018900
