33
c4mim-mes-p2-mp2-cp.com
C	0.00000000	0.00000000	0.00000000
C	0.00000000	0.00000000	1.52552100
C	1.41208600	0.00000000	2.10607100
C	1.38508000	-0.00009900	3.62735500
N	2.74113500	0.00116400	4.19221600
C	3.36400000	-1.07428800	4.69540500
C	4.68228000	0.67147500	5.00091300
C	5.39538500	-1.50928900	6.04196700
N	4.55854700	-0.68701400	5.16968900
C	3.53874500	1.10374800	4.37559200
H	3.22160300	2.09006800	4.08780400
H	5.53930400	1.21455700	5.35736800
H	5.04297700	-1.36748600	7.06131400
H	5.28933500	-2.54878600	5.74451200
H	6.43028300	-1.20031000	5.92287800
H	0.88785200	0.87377200	4.04610500
H	2.92558200	-2.05003700	4.80503900
H	0.88887700	-0.87482500	4.04663500
H	1.95613900	0.87911800	1.74625000
H	1.95688200	-0.88084100	1.75222700
H	-0.53919400	0.87648500	1.89484000
H	-0.53814300	-0.87693300	1.89502300
H	-1.01609000	-0.00164900	-0.39397300
H	0.51237200	-0.88154500	-0.38787100
H	0.50967300	0.88299300	-0.38828200
S	1.52627400	-0.36908000	7.17164100
C	0.61486100	-0.46707300	8.70577900
O	1.11051500	-1.57273500	6.37275900
O	1.12731300	0.92114700	6.52984600
O	2.97741600	-0.41458500	7.55044800
H	0.88927000	0.38853600	9.31753000
H	0.88076400	-1.39666300	9.20231500
H	-0.44635400	-0.44710000	8.47141400
