26
c4mim-cl-p3-mp2-cp.com
C	0.00000000	0.00000000	0.00000000
N	0.00000000	0.00000000	1.38144700
C	1.27251700	0.00000000	1.83825200
N	2.08565100	-0.00467600	0.76157800
C	1.33043100	0.00304600	-0.39198000
C	-1.17836400	-0.00898600	2.25464200
C	3.55955000	0.08213300	0.87304100
C	4.00371300	1.53055300	1.07102000
C	5.49977100	1.59155900	1.39623900
C	5.96280500	3.02912700	1.65672800
Cl	3.19156000	0.24054600	4.22266600
H	1.67120800	0.03236200	2.88503500
H	1.77864800	0.00211500	-1.38168500
H	-0.91498100	-0.00662700	-0.58582300
H	-1.75367400	-0.92945000	2.08815100
H	-0.82523500	0.02823300	3.29243300
H	-1.79931800	0.87083000	2.03998900
H	3.97555000	-0.37002300	-0.04053100
H	3.83680600	-0.50529500	1.76085400
H	3.76941800	2.13074800	0.17218600
H	3.44057800	1.93099100	1.93005900
H	5.67270300	0.97674600	2.29529400
H	6.08462300	1.15052000	0.56816000
H	7.03675600	3.06498100	1.89677300
H	5.79026500	3.66881600	0.77488100
H	5.41016500	3.45774800	2.50774000
