30
c4mim-bf4-p2-mp2-cp.com
C	0.00000000	0.00000000	0.00000000
N	0.00000000	0.00000000	1.37361300
C	1.26833300	0.00000000	1.81016200
N	2.08170800	0.02631700	0.74344500
C	1.31469900	0.01511300	-0.39685500
C	-1.17579800	-0.17529300	2.22921400
C	3.54336500	-0.16386800	0.78242600
C	4.19675100	0.58843400	1.92891900
C	5.71374400	0.41211500	1.90204700
C	6.39346800	1.13684200	3.05944900
F	1.31031100	-2.72138700	1.23319800
B	1.60280900	-2.87401500	2.62530600
F	2.80187300	-2.12995500	2.89662300
F	0.54219500	-2.25513500	3.36284400
F	1.75134100	-4.20838800	2.97011900
H	1.57042000	-0.10154700	2.83555200
H	1.75354700	0.01053500	-1.37880800
H	-0.91009100	-0.01310500	-0.57313000
H	-1.45447200	-1.22469700	2.22573600
H	-0.91206000	0.11631400	3.24004700
H	-1.97516400	0.45636500	1.85097300
H	3.91627300	0.19291800	-0.17844400
H	3.71433800	-1.23587900	0.87342600
H	3.94413600	1.65149200	1.86339600
H	3.81510400	0.20073100	2.87443000
H	5.94662700	-0.65447500	1.94933700
H	6.10704400	0.78472400	0.95142900
H	7.47466600	1.00554400	3.02402200
H	6.18319900	2.20697500	3.02661600
H	6.03926200	0.75086900	4.01576900
