31
c4mpyr-cl-p1-mp2-cp.com
C	0.00000000	0.00000000	0.00000000
C	0.00000000	0.00000000	1.53569700
N	1.47254800	0.00000000	1.93923100
C	2.09326000	0.92501100	0.89304800
C	1.37462000	0.59456100	-0.42058600
C	2.05400900	-1.37329100	1.82465300
C	1.69715800	0.58240800	3.33098200
C	1.02681900	-0.17608300	4.47365600
C	1.27754800	0.55177900	5.80656300
C	0.61388000	-0.15187600	6.99540800
Cl	0.01964200	3.32403300	2.16612600
H	2.78464300	0.61571600	3.46387900
H	1.30622600	1.60704500	3.26766900
H	1.39832000	-1.20712600	4.55560400
H	-0.05537800	-0.22923000	4.30081000
H	2.36032700	0.62646100	5.98261000
H	0.90252100	1.57964500	5.72614000
H	0.98833100	-1.17697800	7.11549700
H	-0.47442400	-0.20496400	6.86726700
H	0.81140200	0.38624100	7.92940900
H	1.52335500	-2.05063200	2.49421300
H	1.95371500	-1.72592800	0.79763100
H	3.11088000	-1.33400200	2.09843800
H	3.17491700	0.76683800	0.88916600
H	1.84092800	1.94043400	1.21938800
H	1.94237600	-0.11380300	-1.03370500
H	1.25565900	1.51208700	-1.00213800
H	-0.13689800	-1.00682700	-0.40937300
H	-0.82954500	0.61683900	-0.35437500
H	-0.49146100	-0.86078900	1.99340500
H	-0.40461000	0.94508300	1.91835600
