37
c4mpyr-pf6-p2-mp2-cp.com
N	0.00000000	0.00000000	0.00000000
C	0.00000000	0.00000000	1.51984100
C	1.48147500	0.00000000	1.93328100
C	2.25087200	0.55999100	0.70160400
C	1.17483400	0.91940200	-0.32739800
C	0.24424500	-1.40249500	-0.50378900
C	-1.31879600	0.53221200	-0.53610500
C	-1.41950400	0.63167800	-2.05731500
C	-2.75781200	1.27216500	-2.46503900
C	-2.90670400	1.37902700	-3.98744400
F	2.77603800	-0.98026300	-2.27619700
P	2.40228900	-0.72135400	-3.88582400
F	0.90212300	-1.39162300	-3.58691900
F	3.85618800	-0.02940300	-4.10934100
F	1.97265900	-0.44173500	-5.42688600
F	1.76662100	0.75740800	-3.43817300
F	2.98663400	-2.19126000	-4.25752800
H	-2.09513200	-0.12763000	-0.13261000
H	-1.44521300	1.51930700	-0.07843600
H	-1.33722400	-0.35759500	-2.51846200
H	-0.58938800	1.22236000	-2.45880900
H	-3.59052900	0.68135300	-2.05544100
H	-2.83912600	2.27377600	-2.01760700
H	-2.86328400	0.39092200	-4.46017100
H	-2.10436300	1.98658100	-4.42138600
H	-3.86422900	1.84011700	-4.25505500
H	0.39307600	-1.38976600	-1.58176500
H	1.14290500	-1.79785800	-0.03296100
H	-0.62198500	-2.00998000	-0.23086100
H	-0.57956100	-0.85562300	1.87349600
H	-0.50415900	0.91878800	1.83198500
H	1.82177100	-1.00769300	2.18804100
H	1.61710700	0.61770500	2.82558500
H	2.93658700	-0.18128600	0.28430000
H	2.84372100	1.44448400	0.94936200
H	1.47679100	0.78090100	-1.36406500
H	0.79978700	1.93791600	-0.18478400
