37
c4mpyr-pf6-p3-mp2-cp.com
C	0.00000000	0.00000000	0.00000000
C	0.00000000	0.00000000	1.55636700
C	1.48196600	0.00000000	1.95909200
N	2.21748800	-0.62037300	0.78839200
C	1.47706000	-0.04285100	-0.41716200
C	2.06861900	-2.12289600	0.80230900
C	3.68964300	-0.22312400	0.73237600
C	4.56819400	-0.80602100	1.83609300
C	5.99631200	-0.24176100	1.72770000
C	6.94236400	-0.83423200	2.77789100
F	4.40262900	-2.62685400	-1.31441100
P	3.96099600	-2.26898200	-2.88954100
F	3.89913000	-0.66221100	-2.44029900
F	3.98182000	-3.85121900	-3.25357100
F	5.52654000	-2.10008200	-3.28809300
F	3.47781000	-1.87307700	-4.38784100
F	2.36508200	-2.40155700	-2.40598000
H	4.04352800	-0.53291300	-0.25191400
H	3.69285000	0.87122100	0.77334600
H	4.61805200	-1.89646700	1.74125900
H	4.16179800	-0.57613700	2.83160400
H	6.38566300	-0.44959000	0.72294200
H	5.96752200	0.85226200	1.83330800
H	7.02585200	-1.92204200	2.66586300
H	6.59210300	-0.62590400	3.79722800
H	7.94875400	-0.41258000	2.67872400
H	2.42332300	-2.50130800	1.76117400
H	1.01636900	-2.37593800	0.67256000
H	2.65312700	-2.53589400	-0.01912300
H	1.70529600	-0.65275200	-1.29088000
H	1.88603800	0.95909400	-0.57035800
H	-0.54535900	-0.86204000	-0.39391700
H	-0.47810900	0.89301700	-0.41146100
H	-0.51317600	-0.88193100	1.95091800
H	-0.50355500	0.87573700	1.97518300
H	1.70741900	-0.55767000	2.86923800
H	1.86907300	1.01748800	2.06414100
