38
c4mpyr-mes-p3-mp2-cp.com
C	0.00000000	0.00000000	0.00000000
N	0.00000000	0.00000000	1.52844400
C	1.42276500	0.00000000	2.03882000
C	-0.68232400	1.30932400	1.86236300
C	-0.14971000	2.31807200	0.83471600
C	0.24984900	1.46142400	-0.40186500
H	-1.79728500	-1.06612600	1.70792700
C	-0.76477500	-1.21647800	2.04229000
C	-0.70902500	-1.43031200	3.55219800
H	-2.65441900	-2.38548900	3.66453800
C	-1.61611300	-2.60759900	3.95104600
C	-1.55310900	-2.91508000	5.45122300
H	0.74416400	-0.72280200	-0.35322400
H	-0.99562200	-0.33946600	-0.29880900
H	1.29852200	1.62033700	-0.66848900
H	-0.34412700	1.71298800	-1.28495000
H	-0.91771000	3.06116000	0.60140100
H	0.71224500	2.86250600	1.23216400
H	-0.48592900	1.57037100	2.90350200
H	-1.75597600	1.14205700	1.73746500
H	1.40985200	0.24858800	3.10088100
H	1.99165700	0.75146300	1.49104100
H	1.85996600	-0.99167800	1.88191600
H	-1.31568900	-3.49420000	3.37866400
H	-0.35753800	-2.08469800	1.51195600
H	-1.02318400	-0.52804300	4.09795800
H	0.31724400	-1.66448900	3.85576000
H	-2.20920900	-3.75482300	5.70741700
H	-1.86717300	-2.05121800	6.05186900
H	-0.53437800	-3.18388700	5.75606600
S	1.85459800	-3.30244100	0.31075300
O	0.40291700	-3.67231900	0.29345200
O	2.35554700	-3.01371600	1.69548400
O	2.18158600	-2.20011900	-0.65365400
C	2.75948800	-4.75854100	-0.26296400
H	2.54639600	-5.58512200	0.41833400
H	2.42044600	-4.99639400	-1.27351700
H	3.82594400	-4.52327100	-0.26049600
