31
c4mpyr-br-p3-mp2-cp.com
N	0.00000000	0.00000000	0.00000000
C	0.00000000	0.00000000	1.52780600
C	1.48064600	0.00000000	1.92512600
C	2.24132000	0.60585200	0.70834400
C	1.15445100	0.91719600	-0.33508600
C	0.26388600	-1.40059700	-0.50257700
C	-1.34713000	0.50584300	-0.50440000
C	-1.53757100	0.47386400	-2.01760800
C	-2.85370300	1.17621800	-2.39546300
C	-3.15569400	1.09128500	-3.89549400
Br	-2.69051600	-2.26750100	1.17170800
H	-2.08842600	-0.13431800	-0.00646900
H	-1.43112000	1.52925000	-0.12270900
H	-1.58430900	-0.56406300	-2.36664800
H	-0.70323500	0.96266800	-2.54240900
H	-3.67482800	0.71919800	-1.82817800
H	-2.80804100	2.23068000	-2.08704600
H	-3.25189200	0.04771600	-4.21899700
H	-2.36011600	1.55664300	-4.49206200
H	-4.09484300	1.60196800	-4.13669300
H	0.37222100	-1.36928500	-1.58692100
H	1.18616600	-1.76801600	-0.05139900
H	-0.58752000	-2.02085100	-0.19313600
H	-0.61663500	-0.84380200	1.85783500
H	-0.49636100	0.92800400	1.82604500
H	1.83108800	-1.01333200	2.14195000
H	1.62539600	0.58776300	2.83573000
H	2.97618400	-0.10063300	0.31100000
H	2.78442400	1.51907800	0.96794800
H	1.46033400	0.75828000	-1.37051100
H	0.78135700	1.94025200	-0.23175400
